/*---------------------------------------------------------------------------*
Caelus 10.04
Web:   www.caelus-cml.com
\*---------------------------------------------------------------------------*/
FoamFile
{
    version     2.0;
    format      ascii;
    class       volScalarField;
    object      k;
}
// * * * * * * * * * * * * * * * * * * * * * * * * * * * * * * * * * * * * * //

#include        "include/initialConditions"

dimensions      [0 2 -2 0 0 0 0];

internalField   uniform $turbulentKE;

boundaryField
{
    outlet
    {
        type            inletOutlet;
        inletValue      uniform $turbulentKE;
        value           $internalField;
    }

    inlet
    {
        type            atmBoundaryLayerInletK;
        #include        "include/ABLConditions"
        value           uniform $turbulentKE;
    }

    "terrain_.*"
    {
        type            kqRWallFunction;
        value           uniform 0.0;
    }

    ground
    {
        type            zeroGradient;
    }

    #include "include/sideAndTopPatches"
}


// ************************************************************************* //
