/*---------------------------------------------------------------------------*
Caelus 9.04
Web:   www.caelus-cml.com
\*---------------------------------------------------------------------------*/
FoamFile
{
    version     2.0;
    format      ascii;
    class       dictionary;
    object      testDict;
}
// * * * * * * * * * * * * * * * * * * * * * * * * * * * * * * * * * * * * * //

boundaryField
{
    Default_Boundary_Region
    {
        value $internalField;
        note "actually a noslip wall";
    }

    inlet_3  "a primitiveEntry squashes directory entry";
}

#inputMode  overwrite
