/*---------------------------------------------------------------------------*
Caelus 9.04
Web:   www.caelus-cml.com
\*---------------------------------------------------------------------------*/
FoamFile
{
    version     2.0;
    format      ascii;
    class       dictionary;
    object      testDict;
}
// * * * * * * * * * * * * * * * * * * * * * * * * * * * * * * * * * * * * * //
// Test some parsing

internalField   uniform 10;
dimensions      [ 0 2 -2 0 0 0 0 ];

active
{
    type            turbulentIntensityKineticEnergyInlet;
    intensity       0.1;
    value           $internalField;
}

active
{
    type            turbulentIntensityKineticEnergyInlet;
    intensity       0.1;
    value           100;
}

(U|k|epsilon|omega)
{
    solver          smoothSolver;
    smoother        symGaussSeidel;
    tolerance       1e-6;
    relTol          0;
}
/*
;
 */

(rho)  smoothSolver
